
**** 11/17/25 21:24:27 *** PSpice 25.1.0 (14 September 2025) ** ID# 0 ********

 ** Profile: "SCHEMATIC1-Q4"  [ C:\Users\Zaid\OneDrive\Desktop\College\Circuit Theory Assignment\Q5\Q5-PSpiceFiles\SCHEMATIC1\Q4.sim 


 ****     CIRCUIT DESCRIPTION


******************************************************************************




** Creating circuit file "Q4.cir" 
** WARNING: THIS AUTOMATICALLY GENERATED FILE MAY BE OVERWRITTEN BY SUBSEQUENT SIMULATIONS

*Libraries: 
* Profile Libraries :
* Local Libraries :
* From [PSPICE NETLIST] section of C:\Users\Zaid\AppData\Roaming\SPB_Data\cdssetup\OrCAD_PSpice\25.1.0\PSpice.ini file:
.lib "nom.lib" 

*Analysis directives: 
.TRAN  0 8 0 0.01 
.OPTIONS ADVCONV
.PROBE64 V(alias(*)) I(alias(*)) W(alias(*)) D(alias(*)) NOISE(alias(*)) 
.INC "..\SCHEMATIC1.net" 



**** INCLUDING SCHEMATIC1.net ****
* source Q5
V_V1         N00122 N00147 20Vdc
R_R1         N00122 N00129  4 TC=0,0 
R_R2         N00147 N00129  1 TC=0,0 
C_C1         N00147 N00129  2  TC=0,0 

**** RESUMING Q4.cir ****
.END

ERROR(ORPSIM-15142): Node N00122 is floating

ERROR(ORPSIM-15142): Node N00147 is floating

ERROR(ORPSIM-15142): Node N00129 is floating
