
**** 11/18/25 01:02:04 *** PSpice 25.1.0 (14 September 2025) ** ID# 0 ********

 ** Profile: "SCHEMATIC1-Q6_2"  [ C:\Users\Zaid\OneDrive\Desktop\College\Circuit Theory Assignment\Q6\Q6_2\Q6_2-PSpiceFiles\SCHEMATIC


 ****     CIRCUIT DESCRIPTION


******************************************************************************




** Creating circuit file "Q6_2.cir" 
** WARNING: THIS AUTOMATICALLY GENERATED FILE MAY BE OVERWRITTEN BY SUBSEQUENT SIMULATIONS

*Libraries: 
* Profile Libraries :
* Local Libraries :
* From [PSPICE NETLIST] section of C:\Users\Zaid\AppData\Roaming\SPB_Data\cdssetup\OrCAD_PSpice\25.1.0\PSpice.ini file:
.lib "nom.lib" 

*Analysis directives: 
.TRAN  0 112 0 
.OPTIONS ADVCONV
.PROBE64 V(alias(*)) I(alias(*)) W(alias(*)) D(alias(*)) NOISE(alias(*)) 
.INC "..\SCHEMATIC1.net" 



**** INCLUDING SCHEMATIC1.net ****
* source Q6_2
L_L1         N00158 0  3H  TC=0,0 
R_R1         0 N00158  2 TC=0,0 
R_R2         0 N00144  4 TC=0,0 
I_I1         N00144 0 DC 0Adc AC 0Aac
+PULSE 0 6 100m 10m 1 28 56
X_U3         N00144 N00158 Sw_tOpen PARAMS: tOpen=28 ttran=1u Rclosed=0.01
+  Ropen=1Meg

**** RESUMING Q6_2.cir ****
.END

**** 11/18/25 01:02:04 *** PSpice 25.1.0 (14 September 2025) ** ID# 0 ********

 ** Profile: "SCHEMATIC1-Q6_2"  [ C:\Users\Zaid\OneDrive\Desktop\College\Circuit Theory Assignment\Q6\Q6_2\Q6_2-PSpiceFiles\SCHEMATIC


 ****     Voltage Controlled Switch MODEL PARAMETERS


******************************************************************************




               X_U3.Smod       
         RON     .01         
        ROFF    1.000000E+06 
         VON    1            
        VOFF    0            


**** 11/18/25 01:02:04 *** PSpice 25.1.0 (14 September 2025) ** ID# 0 ********

 ** Profile: "SCHEMATIC1-Q6_2"  [ C:\Users\Zaid\OneDrive\Desktop\College\Circuit Theory Assignment\Q6\Q6_2\Q6_2-PSpiceFiles\SCHEMATIC


 ****     INITIAL TRANSIENT SOLUTION       TEMPERATURE =   27.000 DEG C


******************************************************************************



 NODE   VOLTAGE     NODE   VOLTAGE     NODE   VOLTAGE     NODE   VOLTAGE


(N00144)    0.0000 (N00158)    0.0000 (X_U3.3)    1.0000 




    VOLTAGE SOURCE CURRENTS
    NAME         CURRENT

    X_U3.V1     -1.000E-12

    TOTAL POWER DISSIPATION   1.00E-12  WATTS



          JOB CONCLUDED

**** 11/18/25 01:02:04 *** PSpice 25.1.0 (14 September 2025) ** ID# 0 ********

 ** Profile: "SCHEMATIC1-Q6_2"  [ C:\Users\Zaid\OneDrive\Desktop\College\Circuit Theory Assignment\Q6\Q6_2\Q6_2-PSpiceFiles\SCHEMATIC


 ****     JOB STATISTICS SUMMARY


******************************************************************************



  Total job time (using Solver 1)   =         .34
