
**** 11/17/25 22:55:04 *** PSpice 25.1.0 (14 September 2025) ** ID# 0 ********

 ** Profile: "SCHEMATIC1-Q6_2"  [ C:\Users\Zaid\OneDrive\Desktop\College\Circuit Theory Assignment\Q6\Q6_2\Q6_2-PSpiceFiles\SCHEMATIC


 ****     CIRCUIT DESCRIPTION


******************************************************************************




** Creating circuit file "Q6_2.cir" 
** WARNING: THIS AUTOMATICALLY GENERATED FILE MAY BE OVERWRITTEN BY SUBSEQUENT SIMULATIONS

*Libraries: 
* Profile Libraries :
* Local Libraries :
* From [PSPICE NETLIST] section of C:\Users\Zaid\AppData\Roaming\SPB_Data\cdssetup\OrCAD_PSpice\25.1.0\PSpice.ini file:
.lib "nom.lib" 

*Analysis directives: 
.TRAN  0 18 0 
.OPTIONS ADVCONV
.PROBE64 V(alias(*)) I(alias(*)) W(alias(*)) D(alias(*)) NOISE(alias(*)) 
.INC "..\SCHEMATIC1.net" 



**** INCLUDING SCHEMATIC1.net ****
* source Q6_2
L_L1         N00144 N00180  3H  TC=0,0 
R_R1         N00180 N00144  2 TC=0,0 
R_R2         N00180 N00144  4 TC=0,0 
I_I1         N00144 N00180 DC 0Adc AC 0Aac
+PULSE 0 6 100m 10m 1 4.5 9

**** RESUMING Q6_2.cir ****
.END

ERROR(ORPSIM-15142): Node N00144 is floating

ERROR(ORPSIM-15142): Node N00180 is floating
